Version 4
SHEET 1 880 680
WIRE -32 0 -416 0
WIRE -176 64 -336 64
WIRE -128 64 -176 64
WIRE -32 64 -80 64
WIRE 80 64 -32 64
WIRE -176 80 -176 64
WIRE 384 112 256 112
WIRE -32 128 -64 128
WIRE 80 128 80 64
WIRE 192 128 80 128
WIRE -416 144 -416 0
WIRE -336 144 -416 144
WIRE -176 144 -336 144
WIRE -80 144 -96 144
WIRE -64 144 -64 128
WIRE -64 144 -80 144
WIRE -128 192 -128 64
WIRE -64 192 -128 192
WIRE -32 192 -64 192
WIRE 208 192 192 192
WIRE -64 240 -64 192
WIRE 208 240 208 192
WIRE 208 240 -64 240
WIRE -96 304 -96 144
WIRE 256 304 256 112
WIRE 256 304 -96 304
FLAG -336 144 0
SYMBOL voltage -336 48 R0
WINDOW 123 0 0 Left 2
WINDOW 39 0 0 Left 2
SYMATTR InstName V2
SYMATTR Value 9
SYMBOL polcap -192 80 R0
WINDOW 3 24 56 Left 2
SYMATTR InstName C1
SYMATTR Value 220µ
SYMATTR Description Capacitor
SYMATTR Type cap
SYMATTR SpiceLine V=16 Irms=460m Rser=0.16 Lser=0 mfg="Nichicon" pn="UPL1C221MPH" type="Al electrolytic"
SYMBOL Misc\\NE555 80 96 R0
SYMATTR InstName U1
SYMBOL res -96 48 R0
SYMATTR InstName R1
SYMATTR Value 4.7
SYMBOL mesfet 384 32 R0
SYMATTR InstName Z1
SYMATTR Value IRF610
TEXT -418 246 Left 2 !.tran 10
